#======================================================================

# CRYSTAL DATA

#----------------------------------------------------------------------

data_VESTA_phase_1


_pd_phase_name                         ''
_cell_length_a                         4.9370(1)
_cell_length_b                         8.5320(4)
_cell_length_c                         5.28700(25)
_cell_angle_alpha                      90
_cell_angle_beta                       105.70000
_cell_angle_gamma                      90
_symmetry_space_group_name_H-M         'C m'
_symmetry_Int_Tables_number            8

loop_
_symmetry_equiv_pos_as_xyz
   'x, y, z'
   'x, -y, z'
   'x+1/2, y+1/2, z'
   'x+1/2, -y+1/2, z'

loop_
   _atom_site_label
   _atom_site_occupancy
   _atom_site_fract_x
   _atom_site_fract_y
   _atom_site_fract_z
   _atom_site_adp_type
   _atom_site_U_iso_or_equiv
   _atom_site_type_symbol
   Mn1        1.0     0.000000      0.167080      0.000000     Uiso  0.059000 Mn
   Li1        1.0     0.000000      0.500000      0.000000     Uiso  0.059000 Li
   H1         0.1000 -0.250000      0.000000      0.500000     Uiso  0.016000 H
   H2         0.1000 -0.250000      0.6606(4)     0.500000     Uiso  0.016000 H
   O1         1.0     0.333333      0.000000      0.3374(10)   Uiso  0.022000 O
   O2         1.0     0.333333      0.333300      0.3374(10)   Uiso  0.022000 O
   O3         1.0     0.166700      0.000000      0.6626(10)   Uiso  0.022000 O
   O4         1.0     0.166700      0.333300      0.6626(10)   Uiso  0.022000 O
